1659011967.401245s 1 https://api.dandiarchive.org/api/zarr/1c337c36-18fe-4756-9cad-b6a66338ab23.zarr/0/0/0/11/7/134
1659011967.396711s 1 https://dandiarchive.s3.amazonaws.com/zarr/1c337c36-18fe-4756-9cad-b6a66338ab23/0/0/0/11/7/134?versionId=ZD.MT3DVnJwwjzOiwAsTVXBtI.QHyzkJ
